*Heading
** Job name: Job-1 Model name: Model-1
** Generated by: Abaqus/CAE 2021
*Preprint, echo=NO, model=NO, history=NO, contact=NO
**
** PARTS
**
*Part, name=Part-Cube
*Node
1,          -5.,          -5.,          10.
2,          -5.,          -3.,          10.
3,          -5.,          -1.,          10.
4,          -5.,           1.,          10.
5,          -5.,           3.,          10.
6,          -5.,           5.,          10.
7,          -5.,          -5.,           8.
8,          -5.,          -3.,           8.
9,          -5.,          -1.,           8.
10,          -5.,           1.,           8.
11,          -5.,           3.,           8.
12,          -5.,           5.,           8.
13,          -5.,          -5.,           6.
14,          -5.,          -3.,           6.
15,          -5.,          -1.,           6.
16,          -5.,           1.,           6.
17,          -5.,           3.,           6.
18,          -5.,           5.,           6.
19,          -5.,          -5.,           4.
20,          -5.,          -3.,           4.
** ... 196 like lines cut
*Element, type=C3D8T
1,  37,  38,  44,  43,   1,   2,   8,   7
2,  38,  39,  45,  44,   2,   3,   9,   8
3,  39,  40,  46,  45,   3,   4,  10,   9
4,  40,  41,  47,  46,   4,   5,  11,  10
5,  41,  42,  48,  47,   5,   6,  12,  11
6,  43,  44,  50,  49,   7,   8,  14,  13
7,  44,  45,  51,  50,   8,   9,  15,  14
8,  45,  46,  52,  51,   9,  10,  16,  15
9,  46,  47,  53,  52,  10,  11,  17,  16
10,  47,  48,  54,  53,  11,  12,  18,  17
11,  49,  50,  56,  55,  13,  14,  20,  19
12,  50,  51,  57,  56,  14,  15,  21,  20
13,  51,  52,  58,  57,  15,  16,  22,  21
14,  52,  53,  59,  58,  16,  17,  23,  22
15,  53,  54,  60,  59,  17,  18,  24,  23
16,  55,  56,  62,  61,  19,  20,  26,  25
17,  56,  57,  63,  62,  20,  21,  27,  26
18,  57,  58,  64,  63,  21,  22,  28,  27
19,  58,  59,  65,  64,  22,  23,  29,  28
20,  59,  60,  66,  65,  23,  24,  30,  29
** ... 105 like lines cut
*Node
217,           0.,           5.,           5.
*Nset, nset=Part-Cube-RefPt_, internal
217, 
*Nset, nset=Set-Cube, generate
1,  216,    1
*Elset, elset=Set-Cube, generate
1,  125,    1
*Nset, nset=Set-RP-0
217,
** Section: Section-Steel
*Solid Section, elset=Set-Cube, material=steel
,
*End Part
**  
*Part, name=Part-Plate
*Node
1,         -30.,           0.,         100.
2,         -30.,           1.,         100.
3,         -30.,           0.,          95.
4,         -30.,           1.,          95.
5,         -30.,           0.,          90.
6,         -30.,           1.,          90.
7,         -30.,           0.,          85.
8,         -30.,           1.,          85.
9,         -30.,           0.,          80.
10,         -30.,           1.,          80.
11,         -30.,           0.,          75.
12,         -30.,           1.,          75.
13,         -30.,           0.,          70.
14,         -30.,           1.,          70.
15,         -30.,           0.,          65.
16,         -30.,           1.,          65.
17,         -30.,           0.,          60.
18,         -30.,           1.,          60.
19,         -30.,           0.,          55.
20,         -30.,           1.,          55.
** ... 190 like lines cut
*Element, type=C3D8T
1,  43,  44,  46,  45,   1,   2,   4,   3
2,  45,  46,  48,  47,   3,   4,   6,   5
3,  47,  48,  50,  49,   5,   6,   8,   7
4,  49,  50,  52,  51,   7,   8,  10,   9
5,  51,  52,  54,  53,   9,  10,  12,  11
6,  53,  54,  56,  55,  11,  12,  14,  13
7,  55,  56,  58,  57,  13,  14,  16,  15
8,  57,  58,  60,  59,  15,  16,  18,  17
9,  59,  60,  62,  61,  17,  18,  20,  19
10,  61,  62,  64,  63,  19,  20,  22,  21
11,  63,  64,  66,  65,  21,  22,  24,  23
12,  65,  66,  68,  67,  23,  24,  26,  25
13,  67,  68,  70,  69,  25,  26,  28,  27
14,  69,  70,  72,  71,  27,  28,  30,  29
15,  71,  72,  74,  73,  29,  30,  32,  31
16,  73,  74,  76,  75,  31,  32,  34,  33
17,  75,  76,  78,  77,  33,  34,  36,  35
18,  77,  78,  80,  79,  35,  36,  38,  37
19,  79,  80,  82,  81,  37,  38,  40,  39
20,  81,  82,  84,  83,  39,  40,  42,  41
** ... 60 like lines cut
*Nset, nset=Set-Plate, generate
1,  210,    1
*Elset, elset=Set-Plate, generate
1,  80,   1
** Section: Section-Steel
*Solid Section, elset=Set-Plate, material=steel
,
*End Part
**  
**
** ASSEMBLY
**
*Assembly, name=Assembly
**  
*Instance, name=Part-Cube-1, part=Part-Cube
10.,          16.,          90.
*End Instance
**  
*Instance, name=Part-Plate-1, part=Part-Plate
30.,           0.,           0.
*End Instance
**  
*Nset, nset=Set-Cube-RP-0, instance=Part-Cube-1
217,
*Nset, nset=Set-Cube-Temp, instance=Part-Cube-1
217,
*Nset, nset=Set-Plate-Whole, instance=Part-Plate-1, generate
1,  210,    1
*Elset, elset=Set-Plate-Whole, instance=Part-Plate-1, generate
1,  80,   1
*Nset, nset=b_Set-Cube, instance=Part-Cube-1, generate
1,  216,    1
*Elset, elset=b_Set-Cube, instance=Part-Cube-1, generate
1,  125,    1
*Nset, nset=_PickedSet7, internal, instance=Part-Cube-1
217,
** Constraint: Constraint-Cube
*Rigid Body, ref node=_PickedSet7, elset=b_Set-Cube
*End Assembly
*Amplitude, name=Amp-1
0.,              0.,              3.,              1.
** 
** MATERIALS
** 
*Material, name=steel
*Conductivity
32.2,
*Density
7.8e-09,
*Elastic
210000., 0.3
*Specific Heat
4.6e+08,
** 
** INTERACTION PROPERTIES
** 
*Surface Interaction, name=IntProp-1
*Friction
0.3,
*Surface Behavior, pressure-overclosure=HARD
*Gap Heat Generation
1., 0.5
** 
** BOUNDARY CONDITIONS
** 
** Name: BC-Cube Type: 速度/角速度
*Boundary, type=VELOCITY
Set-Cube-RP-0, 1, 1
Set-Cube-RP-0, 2, 2
Set-Cube-RP-0, 3, 3
Set-Cube-RP-0, 4, 4
Set-Cube-RP-0, 5, 5
Set-Cube-RP-0, 6, 6
** Name: BC-Plate Type: 对称/反对称/完全固定
*Boundary
Set-Plate-Whole, ENCASTRE
** 
** INTERACTIONS
** 
** Interaction: Int-CubeAndPlate
*Contact, op=NEW
*Contact Inclusions, ALL EXTERIOR
*Contact Property Assignment
,  , IntProp-1
** ----------------------------------------------------------------
** 
** STEP: Step-1
** 
*Step, name=Step-1, nlgeom=YES
*Dynamic Temperature-displacement, Explicit
, 3.
*Bulk Viscosity
0.06, 1.2
** Mass Scaling: Semi-Automatic
**               Whole Model
*Fixed Mass Scaling, factor=1e+09
** 
** BOUNDARY CONDITIONS
** 
** Name: BC-Cube Type: 速度/角速度
*Boundary, type=VELOCITY
Set-Cube-RP-0, 1, 1, 10.
Set-Cube-RP-0, 2, 2, 15.
Set-Cube-RP-0, 3, 3, -20.
** 
** OUTPUT REQUESTS
** 
*Restart, write, number interval=1, time marks=NO
** 
** FIELD OUTPUT: F-Output-1
** 
*Output, field, variable=PRESELECT, number interval=300
** 
** HISTORY OUTPUT: H-Output-1
** 
*Output, history, frequency=1
*Node Output, nset=Set-Cube-RP-0
U1, U2, U3, UR1, UR2, UR3
*End Step
